364
id, x, y, z
C 0.0 0.0 0.0
C 0.0 2.461 0.0
C 1.6406666666666667 2.461 0.0
C 2.1312885187135033 1.2305 0.0
C 3.77195518538017 1.2305 0.0
C 0.0 4.922 0.0
C 1.6406666666666663 4.922 0.0
C 2.1312885187135033 3.6914999999999996 0.0
C 3.7719551853801696 3.6914999999999996 0.0
C 4.262577037427007 2.461 0.0
C 5.903243704093673 2.461 0.0
C 6.3938655561405096 1.2305 0.0
C 8.034532222807176 1.2305 0.0
C 0.0 7.382999999999999 0.0
C 1.6406666666666663 7.382999999999999 0.0
C 2.131288518713503 6.1525 0.0
C 3.771955185380169 6.1525 0.0
C 4.262577037427006 4.922 0.0
C 5.903243704093672 4.922 0.0
C 6.3938655561405096 3.6914999999999996 0.0
C 8.034532222807176 3.6914999999999996 0.0
C 8.525154074854013 2.4609999999999994 0.0
C 10.16582074152068 2.4609999999999994 0.0
C 10.656442593567515 1.2304999999999997 0.0
C 12.297109260234183 1.2304999999999997 0.0
C -0.4906218520468375 11.0745 0.0
C 0.0 9.844 0.0
C 1.6406666666666663 9.844 0.0
C 2.1312885187135038 8.613499999999998 0.0
C 3.77195518538017 8.613499999999998 0.0
C 4.262577037427007 7.382999999999999 0.0
C 5.903243704093673 7.382999999999999 0.0
C 6.3938655561405096 6.1525 0.0
C 8.034532222807176 6.1525 0.0
C 8.525154074854013 4.922 0.0
C 10.16582074152068 4.922 0.0
C 10.656442593567517 3.6914999999999996 0.0
C 12.297109260234183 3.6914999999999996 0.0
C 12.787731112281019 2.461 0.0
C 14.428397778947687 2.461 0.0
C 14.919019630994523 1.2305000000000001 0.0
C 16.559686297661187 1.2305000000000001 0.0
C -0.4906218520468357 13.535499999999999 0.0
C 0.0 12.305 0.0
C 1.6406666666666663 12.305 0.0
C 2.1312885187135038 11.0745 0.0
C 3.77195518538017 11.0745 0.0
C 4.2625770374270076 9.844 0.0
C 5.903243704093674 9.844 0.0
C 6.39386555614051 8.6135 0.0
C 8.034532222807176 8.6135 0.0
C 8.525154074854013 7.383 0.0
C 10.16582074152068 7.383 0.0
C 10.656442593567517 6.1525 0.0
C 12.297109260234183 6.1525 0.0
C 12.78773111228102 4.922 0.0
C 14.428397778947687 4.922 0.0
C 14.919019630994523 3.6915 0.0
C 16.55968629766119 3.6915 0.0
C 17.050308149708027 2.4610000000000003 0.0
C 18.69097481637469 2.4610000000000003 0.0
C 19.18159666842153 1.2305000000000001 0.0
C 20.822263335088195 1.2305000000000001 0.0
C -0.4906218520468375 15.9965 0.0
C 0.0 14.765999999999998 0.0
C 1.6406666666666663 14.765999999999998 0.0
C 2.131288518713502 13.535499999999999 0.0
C 3.7719551853801683 13.535499999999999 0.0
C 4.262577037427006 12.305 0.0
C 5.903243704093672 12.305 0.0
C 6.3938655561405096 11.074499999999999 0.0
C 8.034532222807176 11.074499999999999 0.0
C 8.525154074854012 9.844 0.0
C 10.16582074152068 9.844 0.0
C 10.656442593567515 8.613499999999998 0.0
C 12.297109260234182 8.613499999999998 0.0
C 12.787731112281019 7.382999999999999 0.0
C 14.428397778947685 7.382999999999999 0.0
C 14.919019630994523 6.152499999999999 0.0
C 16.559686297661187 6.152499999999999 0.0
C 17.050308149708027 4.921999999999999 0.0
C 18.69097481637469 4.921999999999999 0.0
C 19.181596668421527 3.6914999999999996 0.0
C 20.822263335088195 3.6914999999999996 0.0
C 21.31288518713503 2.4609999999999994 0.0
C 22.9535518538017 2.4609999999999994 0.0
C -0.4906218520468357 18.4575 0.0
C 0.0 17.227 0.0
C 1.640666666666668 17.227 0.0
C 2.1312885187135038 15.9965 0.0
C 3.771955185380172 15.9965 0.0
C 4.262577037427006 14.766 0.0
C 5.903243704093674 14.766 0.0
C 6.3938655561405096 13.535499999999999 0.0
C 8.034532222807178 13.535499999999999 0.0
C 8.525154074854013 12.305 0.0
C 10.165820741520681 12.305 0.0
C 10.656442593567515 11.0745 0.0
C 12.297109260234183 11.0745 0.0
C 12.787731112281019 9.844 0.0
C 14.428397778947687 9.844 0.0
C 14.919019630994523 8.6135 0.0
C 16.55968629766119 8.6135 0.0
C 17.050308149708027 7.383 0.0
C 18.690974816374695 7.383 0.0
C 19.18159666842153 6.1525 0.0
C 20.8222633350882 6.1525 0.0
C 21.31288518713503 4.922000000000001 0.0
C 22.9535518538017 4.922000000000001 0.0
C -0.4906218520468357 20.918499999999998 0.0
C 0.0 19.688 0.0
C 1.640666666666668 19.688 0.0
C 2.1312885187135038 18.4575 0.0
C 3.771955185380172 18.4575 0.0
C 4.2625770374270076 17.226999999999997 0.0
C 5.903243704093676 17.226999999999997 0.0
C 6.3938655561405096 15.9965 0.0
C 8.034532222807178 15.9965 0.0
C 8.525154074854013 14.765999999999998 0.0
C 10.165820741520681 14.765999999999998 0.0
C 10.656442593567517 13.535499999999999 0.0
C 12.297109260234185 13.535499999999999 0.0
C 12.787731112281019 12.305 0.0
C 14.428397778947687 12.305 0.0
C 14.919019630994523 11.074499999999999 0.0
C 16.55968629766119 11.074499999999999 0.0
C 17.050308149708027 9.844 0.0
C 18.690974816374695 9.844 0.0
C 19.18159666842153 8.6135 0.0
C 20.8222633350882 8.6135 0.0
C 21.312885187135034 7.382999999999999 0.0
C 22.953551853801702 7.382999999999999 0.0
C -0.4906218520468357 23.3795 0.0
C 0.0 22.148999999999997 0.0
C 1.640666666666668 22.148999999999997 0.0
C 2.1312885187135038 20.918499999999998 0.0
C 3.771955185380172 20.918499999999998 0.0
C 4.2625770374270076 19.688 0.0
C 5.903243704093676 19.688 0.0
C 6.393865556140511 18.457499999999996 0.0
C 8.03453222280718 18.457499999999996 0.0
C 8.525154074854013 17.226999999999997 0.0
C 10.165820741520681 17.226999999999997 0.0
C 10.656442593567517 15.996499999999997 0.0
C 12.297109260234185 15.996499999999997 0.0
C 12.78773111228102 14.765999999999998 0.0
C 14.428397778947689 14.765999999999998 0.0
C 14.919019630994523 13.535499999999999 0.0
C 16.55968629766119 13.535499999999999 0.0
C 17.050308149708027 12.304999999999998 0.0
C 18.690974816374695 12.304999999999998 0.0
C 19.18159666842153 11.074499999999999 0.0
C 20.8222633350882 11.074499999999999 0.0
C 21.312885187135034 9.844 0.0
C 22.953551853801702 9.844 0.0
C -0.4906218520468357 25.8405 0.0
C 0.0 24.61 0.0
C 1.640666666666668 24.61 0.0
C 2.1312885187135038 23.3795 0.0
C 3.771955185380172 23.3795 0.0
C 4.2625770374270076 22.149 0.0
C 5.903243704093676 22.149 0.0
C 6.393865556140511 20.9185 0.0
C 8.03453222280718 20.9185 0.0
C 8.525154074854015 19.688 0.0
C 10.165820741520683 19.688 0.0
C 10.656442593567517 18.4575 0.0
C 12.297109260234185 18.4575 0.0
C 12.78773111228102 17.227 0.0
C 14.428397778947689 17.227 0.0
C 14.919019630994525 15.9965 0.0
C 16.559686297661194 15.9965 0.0
C 17.050308149708027 14.766 0.0
C 18.690974816374695 14.766 0.0
C 19.18159666842153 13.535499999999999 0.0
C 20.8222633350882 13.535499999999999 0.0
C 21.312885187135034 12.305 0.0
C -0.4906218520468322 28.301499999999997 0.0
C 0.0 27.070999999999998 0.0
C 1.640666666666668 27.070999999999998 0.0
C 2.1312885187135038 25.8405 0.0
C 3.771955185380172 25.8405 0.0
C 4.2625770374270076 24.61 0.0
C 5.903243704093676 24.61 0.0
C 6.393865556140511 23.3795 0.0
C 8.03453222280718 23.3795 0.0
C 8.525154074854015 22.149 0.0
C 10.165820741520683 22.149 0.0
C 10.656442593567519 20.918499999999998 0.0
C 12.297109260234187 20.918499999999998 0.0
C 12.78773111228102 19.688 0.0
C 14.428397778947689 19.688 0.0
C 14.919019630994525 18.4575 0.0
C 16.559686297661194 18.4575 0.0
C 17.05030814970803 17.226999999999997 0.0
C 18.6909748163747 17.226999999999997 0.0
C 19.18159666842153 15.9965 0.0
C 20.8222633350882 15.9965 0.0
C 21.312885187135034 14.765999999999998 0.0
C -0.4906218520468357 30.762499999999996 0.0
C 0.0 29.531999999999996 0.0
C 1.640666666666668 29.531999999999996 0.0
C 2.1312885187135002 28.301499999999997 0.0
C 3.7719551853801683 28.301499999999997 0.0
C 4.262577037427004 27.070999999999998 0.0
C 5.903243704093672 27.070999999999998 0.0
C 6.393865556140508 25.8405 0.0
C 8.034532222807176 25.8405 0.0
C 8.525154074854012 24.61 0.0
C 10.16582074152068 24.61 0.0
C 10.656442593567515 23.3795 0.0
C 12.297109260234183 23.3795 0.0
C 12.787731112281019 22.148999999999997 0.0
C 14.428397778947687 22.148999999999997 0.0
C 14.919019630994521 20.918499999999998 0.0
C 16.559686297661187 20.918499999999998 0.0
C 17.050308149708023 19.688 0.0
C 18.69097481637469 19.688 0.0
C 19.181596668421527 18.457499999999996 0.0
C 20.822263335088195 18.457499999999996 0.0
C 21.31288518713503 17.226999999999997 0.0
C -0.4906218520468357 33.2235 0.0
C 0.0 31.993 0.0
C 1.640666666666668 31.993 0.0
C 2.1312885187135038 30.762499999999996 0.0
C 3.771955185380172 30.762499999999996 0.0
C 4.262577037427004 29.531999999999996 0.0
C 5.903243704093672 29.531999999999996 0.0
C 6.393865556140508 28.301499999999997 0.0
C 8.034532222807176 28.301499999999997 0.0
C 8.525154074854012 27.070999999999998 0.0
C 10.16582074152068 27.070999999999998 0.0
C 10.656442593567515 25.8405 0.0
C 12.297109260234183 25.8405 0.0
C 12.787731112281019 24.61 0.0
C 14.428397778947687 24.61 0.0
C 14.919019630994523 23.3795 0.0
C 16.55968629766119 23.3795 0.0
C 17.050308149708023 22.149 0.0
C 18.69097481637469 22.149 0.0
C 19.181596668421527 20.918499999999998 0.0
C 20.822263335088195 20.918499999999998 0.0
C 21.31288518713503 19.688 0.0
C -0.4906218520468357 35.6845 0.0
C 0.0 34.454 0.0
C 1.640666666666668 34.454 0.0
C 2.1312885187135038 33.2235 0.0
C 3.771955185380172 33.2235 0.0
C 4.2625770374270076 31.993 0.0
C 5.903243704093676 31.993 0.0
C 6.393865556140508 30.7625 0.0
C 8.034532222807176 30.7625 0.0
C 8.525154074854012 29.532 0.0
C 10.16582074152068 29.532 0.0
C 10.656442593567515 28.301499999999997 0.0
C 12.297109260234183 28.301499999999997 0.0
C 12.787731112281019 27.070999999999998 0.0
C 14.428397778947687 27.070999999999998 0.0
C 14.919019630994523 25.8405 0.0
C 16.55968629766119 25.8405 0.0
C 17.050308149708027 24.61 0.0
C 18.690974816374695 24.61 0.0
C 19.181596668421527 23.3795 0.0
C 20.822263335088195 23.3795 0.0
C 21.31288518713503 22.149 0.0
C -0.4906218520468357 38.1455 0.0
C 0.0 36.915 0.0
C 1.640666666666668 36.915 0.0
C 2.1312885187135038 35.6845 0.0
C 3.771955185380172 35.6845 0.0
C 4.2625770374270076 34.454 0.0
C 5.903243704093676 34.454 0.0
C 6.393865556140511 33.2235 0.0
C 8.03453222280718 33.2235 0.0
C 8.525154074854012 31.993 0.0
C 10.16582074152068 31.993 0.0
C 10.656442593567515 30.7625 0.0
C 12.297109260234183 30.7625 0.0
C 12.787731112281019 29.531999999999996 0.0
C 14.428397778947687 29.531999999999996 0.0
C 14.919019630994523 28.301499999999997 0.0
C 16.55968629766119 28.301499999999997 0.0
C 17.050308149708027 27.070999999999998 0.0
C 18.690974816374695 27.070999999999998 0.0
C 19.18159666842153 25.8405 0.0
C 20.8222633350882 25.8405 0.0
C 21.31288518713503 24.61 0.0
C -0.4906218520468357 40.6065 0.0
C 0.0 39.376 0.0
C 1.640666666666668 39.376 0.0
C 2.1312885187135038 38.1455 0.0
C 3.771955185380172 38.1455 0.0
C 4.2625770374270076 36.915 0.0
C 5.903243704093676 36.915 0.0
C 6.393865556140511 35.6845 0.0
C 8.03453222280718 35.6845 0.0
C 8.525154074854015 34.45399999999999 0.0
C 10.165820741520683 34.45399999999999 0.0
C 10.656442593567515 33.2235 0.0
C 12.297109260234183 33.2235 0.0
C 12.787731112281019 31.993 0.0
C 14.428397778947687 31.993 0.0
C 14.919019630994523 30.762499999999996 0.0
C 16.55968629766119 30.762499999999996 0.0
C 17.050308149708027 29.531999999999996 0.0
C 18.690974816374695 29.531999999999996 0.0
C 19.18159666842153 28.301499999999997 0.0
C 20.8222633350882 28.301499999999997 0.0
C 21.312885187135034 27.070999999999998 0.0
C 2.1312885187135038 40.6065 0.0
C 3.771955185380172 40.6065 0.0
C 4.2625770374270076 39.376 0.0
C 5.903243704093676 39.376 0.0
C 6.393865556140511 38.1455 0.0
C 8.03453222280718 38.1455 0.0
C 8.525154074854015 36.915 0.0
C 10.165820741520683 36.915 0.0
C 10.656442593567519 35.6845 0.0
C 12.297109260234187 35.6845 0.0
C 12.787731112281019 34.45399999999999 0.0
C 14.428397778947687 34.45399999999999 0.0
C 14.919019630994523 33.2235 0.0
C 16.55968629766119 33.2235 0.0
C 17.050308149708027 31.992999999999995 0.0
C 18.690974816374695 31.992999999999995 0.0
C 19.18159666842153 30.762499999999996 0.0
C 20.8222633350882 30.762499999999996 0.0
C 21.312885187135034 29.531999999999996 0.0
C 6.393865556140511 40.6065 0.0
C 8.03453222280718 40.6065 0.0
C 8.525154074854015 39.376 0.0
C 10.165820741520683 39.376 0.0
C 10.656442593567519 38.1455 0.0
C 12.297109260234187 38.1455 0.0
C 12.787731112281023 36.91499999999999 0.0
C 14.42839777894769 36.91499999999999 0.0
C 14.919019630994523 35.6845 0.0
C 16.55968629766119 35.6845 0.0
C 17.050308149708027 34.45399999999999 0.0
C 18.690974816374695 34.45399999999999 0.0
C 19.18159666842153 33.223499999999994 0.0
C 20.8222633350882 33.223499999999994 0.0
C 21.312885187135034 31.992999999999995 0.0
C 10.656442593567519 40.6065 0.0
C 12.297109260234187 40.6065 0.0
C 12.787731112281023 39.376 0.0
C 14.42839777894769 39.376 0.0
C 14.919019630994526 38.1455 0.0
C 16.559686297661194 38.1455 0.0
C 17.050308149708027 36.915 0.0
C 18.690974816374695 36.915 0.0
C 19.18159666842153 35.6845 0.0
C 20.8222633350882 35.6845 0.0
C 21.312885187135034 34.454 0.0
C 14.919019630994526 40.6065 0.0
C 16.559686297661194 40.6065 0.0
C 17.05030814970803 39.376 0.0
C 18.6909748163747 39.376 0.0
C 19.18159666842153 38.1455 0.0
C 20.8222633350882 38.1455 0.0
C 21.312885187135034 36.915 0.0
C 19.181596668421534 40.6065 0.0
C 20.822263335088202 40.6065 0.0
C 21.312885187135034 39.376 0.0
