200
id, x, y, z
C 0.0 0.0 0.0
C 1.6406666666666665 0.0 0.0
C 2.1312885187135033 -1.2305 0.0
C 3.77195518538017 -1.2305 0.0
C 4.262577037427007 -2.461 0.0
C 5.903243704093673 -2.461 0.0
C 6.3938655561405096 -3.6914999999999996 0.0
C 8.034532222807176 -3.6914999999999996 0.0
C 8.525154074854013 -4.922 0.0
C 10.16582074152068 -4.922 0.0
C 10.656442593567517 -6.1525 0.0
C 12.297109260234183 -6.1525 0.0
C 12.787731112281019 -7.382999999999999 0.0
C 14.428397778947685 -7.382999999999999 0.0
C 14.919019630994523 -8.6135 0.0
C 16.55968629766119 -8.6135 0.0
C 17.050308149708027 -9.844 0.0
C 18.690974816374695 -9.844 0.0
C 19.18159666842153 -11.074499999999999 0.0
C 20.8222633350882 -11.074499999999999 0.0
C 2.1312885187135033 1.2305 0.0
C 3.77195518538017 1.2305 0.0
C 4.262577037427007 0.0 0.0
C 5.903243704093674 0.0 0.0
C 6.3938655561405096 -1.2305 0.0
C 8.034532222807176 -1.2305 0.0
C 8.525154074854013 -2.4609999999999994 0.0
C 10.16582074152068 -2.4609999999999994 0.0
C 10.656442593567517 -3.6914999999999996 0.0
C 12.297109260234183 -3.6914999999999996 0.0
C 12.78773111228102 -4.922 0.0
C 14.428397778947687 -4.922 0.0
C 14.919019630994523 -6.152499999999999 0.0
C 16.559686297661187 -6.152499999999999 0.0
C 17.050308149708027 -7.383 0.0
C 18.69097481637469 -7.383 0.0
C 19.18159666842153 -8.6135 0.0
C 20.822263335088195 -8.6135 0.0
C 21.312885187135034 -9.844 0.0
C 22.9535518538017 -9.844 0.0
C 4.262577037427007 2.461 0.0
C 5.903243704093673 2.461 0.0
C 6.3938655561405096 1.2305 0.0
C 8.034532222807176 1.2305 0.0
C 8.525154074854013 0.0 0.0
C 10.16582074152068 0.0 0.0
C 10.656442593567515 -1.2304999999999997 0.0
C 12.297109260234183 -1.2304999999999997 0.0
C 12.787731112281019 -2.461 0.0
C 14.428397778947687 -2.461 0.0
C 14.919019630994523 -3.6915 0.0
C 16.55968629766119 -3.6915 0.0
C 17.050308149708027 -4.921999999999999 0.0
C 18.69097481637469 -4.921999999999999 0.0
C 19.18159666842153 -6.1525 0.0
C 20.822263335088195 -6.1525 0.0
C 21.312885187135034 -7.382999999999999 0.0
C 22.9535518538017 -7.382999999999999 0.0
C 23.444173705848538 -8.613499999999998 0.0
C 25.084840372515202 -8.613499999999998 0.0
C 6.3938655561405096 3.6914999999999996 0.0
C 8.034532222807176 3.6914999999999996 0.0
C 8.525154074854013 2.4609999999999994 0.0
C 10.16582074152068 2.4609999999999994 0.0
C 10.656442593567515 1.2304999999999997 0.0
C 12.297109260234183 1.2304999999999997 0.0
C 12.787731112281019 0.0 0.0
C 14.428397778947685 0.0 0.0
C 14.919019630994523 -1.2305000000000001 0.0
C 16.559686297661187 -1.2305000000000001 0.0
C 17.050308149708027 -2.4610000000000003 0.0
C 18.69097481637469 -2.4610000000000003 0.0
C 19.181596668421527 -3.6914999999999996 0.0
C 20.822263335088195 -3.6914999999999996 0.0
C 21.31288518713503 -4.922000000000001 0.0
C 22.9535518538017 -4.922000000000001 0.0
C 23.444173705848534 -6.1525 0.0
C 25.084840372515202 -6.1525 0.0
C 25.575462224562038 -7.382999999999999 0.0
C 27.216128891228706 -7.382999999999999 0.0
C 8.525154074854013 4.922 0.0
C 10.16582074152068 4.922 0.0
C 10.656442593567517 3.6914999999999996 0.0
C 12.297109260234183 3.6914999999999996 0.0
C 12.787731112281019 2.461 0.0
C 14.428397778947687 2.461 0.0
C 14.919019630994523 1.2305000000000001 0.0
C 16.559686297661187 1.2305000000000001 0.0
C 17.050308149708027 0.0 0.0
C 18.69097481637469 0.0 0.0
C 19.18159666842153 -1.2305000000000001 0.0
C 20.822263335088195 -1.2305000000000001 0.0
C 21.31288518713503 -2.4609999999999994 0.0
C 22.9535518538017 -2.4609999999999994 0.0
C 23.444173705848534 -3.6915000000000004 0.0
C 25.084840372515202 -3.6915000000000004 0.0
C 25.575462224562038 -4.922 0.0
C 27.216128891228706 -4.922 0.0
C 27.706750743275542 -6.152499999999999 0.0
C 29.34741740994221 -6.152499999999999 0.0
C 10.656442593567517 6.1525 0.0
C 12.297109260234183 6.1525 0.0
C 12.78773111228102 4.922 0.0
C 14.428397778947687 4.922 0.0
C 14.919019630994523 3.6915 0.0
C 16.55968629766119 3.6915 0.0
C 17.050308149708027 2.4610000000000003 0.0
C 18.69097481637469 2.4610000000000003 0.0
C 19.18159666842153 1.2305000000000001 0.0
C 20.822263335088195 1.2305000000000001 0.0
C 21.312885187135034 0.0 0.0
C 22.9535518538017 0.0 0.0
C 23.444173705848534 -1.2304999999999993 0.0
C 25.084840372515202 -1.2304999999999993 0.0
C 25.575462224562038 -2.4610000000000003 0.0
C 27.216128891228706 -2.4610000000000003 0.0
C 27.706750743275542 -3.6914999999999996 0.0
C 29.34741740994221 -3.6914999999999996 0.0
C 29.838039261989046 -4.921999999999999 0.0
C 31.478705928655714 -4.921999999999999 0.0
C 12.787731112281019 7.382999999999999 0.0
C 14.428397778947685 7.382999999999999 0.0
C 14.919019630994523 6.152499999999999 0.0
C 16.559686297661187 6.152499999999999 0.0
C 17.050308149708027 4.921999999999999 0.0
C 18.69097481637469 4.921999999999999 0.0
C 19.181596668421527 3.6914999999999996 0.0
C 20.822263335088195 3.6914999999999996 0.0
C 21.31288518713503 2.4609999999999994 0.0
C 22.9535518538017 2.4609999999999994 0.0
C 23.444173705848534 1.2304999999999993 0.0
C 25.084840372515202 1.2304999999999993 0.0
C 25.575462224562038 0.0 0.0
C 27.216128891228706 0.0 0.0
C 27.706750743275542 -1.230500000000001 0.0
C 29.34741740994221 -1.230500000000001 0.0
C 29.838039261989046 -2.4610000000000003 0.0
C 31.478705928655714 -2.4610000000000003 0.0
C 31.96932778070255 -3.6914999999999996 0.0
C 33.60999444736922 -3.6914999999999996 0.0
C 14.919019630994523 8.6135 0.0
C 16.55968629766119 8.6135 0.0
C 17.050308149708027 7.383 0.0
C 18.690974816374695 7.383 0.0
C 19.18159666842153 6.1525 0.0
C 20.8222633350882 6.1525 0.0
C 21.31288518713503 4.922000000000001 0.0
C 22.9535518538017 4.922000000000001 0.0
C 23.444173705848534 3.6915000000000004 0.0
C 25.084840372515202 3.6915000000000004 0.0
C 25.575462224562038 2.4610000000000003 0.0
C 27.216128891228706 2.4610000000000003 0.0
C 27.706750743275542 1.230500000000001 0.0
C 29.34741740994221 1.230500000000001 0.0
C 29.838039261989046 0.0 0.0
C 31.478705928655714 0.0 0.0
C 31.96932778070255 -1.2304999999999993 0.0
C 33.60999444736922 -1.2304999999999993 0.0
C 34.10061629941605 -2.4609999999999985 0.0
C 35.74128296608272 -2.4609999999999985 0.0
C 17.050308149708027 9.844 0.0
C 18.690974816374695 9.844 0.0
C 19.18159666842153 8.6135 0.0
C 20.8222633350882 8.6135 0.0
C 21.312885187135034 7.382999999999999 0.0
C 22.953551853801702 7.382999999999999 0.0
C 23.444173705848534 6.1525 0.0
C 25.084840372515202 6.1525 0.0
C 25.575462224562038 4.922 0.0
C 27.216128891228706 4.922 0.0
C 27.706750743275542 3.6914999999999996 0.0
C 29.34741740994221 3.6914999999999996 0.0
C 29.838039261989046 2.4610000000000003 0.0
C 31.478705928655714 2.4610000000000003 0.0
C 31.96932778070255 1.2304999999999993 0.0
C 33.60999444736922 1.2304999999999993 0.0
C 34.10061629941605 0.0 0.0
C 35.74128296608272 0.0 0.0
C 36.23190481812956 -1.2304999999999993 0.0
C 37.872571484796225 -1.2304999999999993 0.0
C 19.18159666842153 11.074499999999999 0.0
C 20.8222633350882 11.074499999999999 0.0
C 21.312885187135034 9.844 0.0
C 22.953551853801702 9.844 0.0
C 23.444173705848538 8.613499999999998 0.0
C 25.084840372515206 8.613499999999998 0.0
C 25.575462224562038 7.382999999999999 0.0
C 27.216128891228706 7.382999999999999 0.0
C 27.706750743275542 6.152499999999999 0.0
C 29.34741740994221 6.152499999999999 0.0
C 29.838039261989046 4.921999999999999 0.0
C 31.478705928655714 4.921999999999999 0.0
C 31.96932778070255 3.6914999999999996 0.0
C 33.60999444736922 3.6914999999999996 0.0
C 34.10061629941605 2.4609999999999985 0.0
C 35.74128296608272 2.4609999999999985 0.0
C 36.23190481812956 1.2304999999999993 0.0
C 37.872571484796225 1.2304999999999993 0.0
C 38.36319333684306 0.0 0.0
C 40.00386000350973 0.0 0.0
